[General]
network = Network
sim-time-limit =  26s
#record-eventlog = true
#tkenv-plugin-path = ../../../etc/plugins
repeat = 10
seed-set = ${runnumber}

num-rngs=6
rng-class = "cMersenneTwister"
cmdenv-express-mode=false
record-eventlog = false
result-dir = result

#Things to deactivate
**.host[*].udpApp[*].**.scalar-recording = false
**.host[*].udpApp[*].**.vector-recording = false
**.host[*].udp.**.scalar-recording = true
**.host[*].aodv.**.scalar-recording = false
**.host[*].rsmgmnt.**.scalar-recording = false
**.host[*].rsmgmnt.**.vector-recording = false
**.host[*].wlan[*].mac.**.scalar-recording = false
**.host[*].wlan[*].radio.**.scalar-recording = false
**.status.**.scalar-recording = false
**.status.**.vector-recording = false
**.**.scalar-recording = false
**.**.vector-recording = false
**.**.vector-record-eventnumbers = false

#*.host[*].wlan[*].typename = "IdealWirelessNic"
#*.host[*].wlan[*].typename = "Ieee80211Nic"
*.host[*].wlan[*].radioType = "Ieee80211IdealRadio"
#*.host[*].wlan[*].macType = "IdealMac"
*.host[*].wlan[*].radio.transmitter.communicationRange = 250m
#*.host[*].wlan[*].radio.receiverType = "IdealReceiver"
*.host[*].wlan[*].bitrate = 2Mbps
*.visualizer.*.mediumVisualizer.displayCommunicationRanges = true
*.host[*].wlan[*].radio.displayInterferenceRange = true


#####################################################
#################Area###########################
####################################################
 *.host[*].mobility.constraintAreaMinX = 0m
 *.host[*].mobility.constraintAreaMinY = 0m
 *.host[*].mobility.constraintAreaMinZ = 0m


 *.host[*].mobility.constraintAreaMaxZ = 0m
*.host[*].mobility.initFromDisplayString = false

[Config Static]
network = StaticNetwork
**.initFromDisplayString = false
#StaticNetwork.configurator.config=xmldoc("scenario/StaticRouteConfiguration.xml")
*.host[*].wlan[*].mgmtType = "Ieee80211MgmtAdhoc"
**.mtu = 2304B
 *.host[*].mobility.constraintAreaMaxY = 400m
 *.host[*].mobility.constraintAreaMaxX = 1200m
include scenario/DirectLink.ini
*.numHosts = 8
**.hasStatus = true
*.scenarioManager.script = xmldoc("scenario/dynamic.xml")
*.host[*].mobilityType = "StationaryMobility"

*.host[0].mobility.initialX = 0m
*.host[0].mobility.initialY = 100m
*.host[0].mobility.initialZ = 0m

*.host[5].mobility.initialX = 100m
*.host[5].mobility.initialY = 200m
*.host[5].mobility.initialZ = 0m

*.host[1].mobility.initialX = 200m
*.host[1].mobility.initialY = 100m
*.host[1].mobility.initialZ = 0m

*.host[6].mobility.initialX = 300m
*.host[6].mobility.initialY = 200m
*.host[6].mobility.initialZ = 0m

*.host[2].mobility.initialX = 400m
*.host[2].mobility.initialY = 100m
*.host[2].mobility.initialZ = 0m

*.host[7].mobility.initialX = 500m
*.host[7].mobility.initialY = 200m
*.host[7].mobility.initialZ = 0m

*.host[3].mobility.initialX = 600m
*.host[3].mobility.initialY = 100m
*.host[3].mobility.initialZ = 0m

*.host[8].mobility.initialX = 700m
*.host[8].mobility.initialY = 100m
*.host[8].mobility.initialZ = 0m

*.host[4].mobility.initialX = 800m
*.host[4].mobility.initialY = 100m
*.host[4].mobility.initialZ = 0m

[Config Mobility]
include scenario/HalfFull.ini

*.host[*].mobility.constraintAreaMaxX = 400m
*.host[*].mobility.constraintAreaMaxY = 800m
*.host*.mobilityType = "StationaryMobility"
*.host*.mobility.initFromDisplayString = false
*.host*.mobility.changeInterval = truncnormal(4s, 2s)
*.host*.mobility.changeAngleBy = normal(1deg, 50deg)
*.host*.mobility.speed = truncnormal(0.1mps, 0.05mps)
#routing
[Config AODVNetwork]
extends = Mobility
network = AODVNetwork


[Config AODVQoSNetwork]
extends = Mobility
network = AODVQoSNetwork


